LTspice 26.0.1 for Windows
Circuit: C:\users\laurobrizidio\My Documents\LTspice\LTSpice_porta_or_tres_entradas.net
Start Time: Wed Feb  4 00:33:32 2026
solver = Normal
Maximum thread count: 24
tnom = 27
temp = 27
method = trap
.OP point found by inspection.
.OP point found by inspection.
Total elapsed time: 0.054 seconds.

Files loaded:
C:\users\laurobrizidio\My Documents\LTspice\LTSpice_porta_or_tres_entradas.net
C:\users\laurobrizidio\Local Settings\Application Data\LTspice\lib\cmp\standard.dio

